<routes>
    <vType id="p1" accel="1.8" decel="4.5" sigma="0.2" length="5" maxSpeed="190"/>
    <vType id="p2" accel="1.3" decel="3.5" sigma="0.6" length="3" maxSpeed="130"/>

    <vehicle id="0" type="p1" depart="0" color="1,0,0">
      <route edges="gneE0 gneE1 gneE2 gneE3"/> 
    </vehicle>
	<vehicle id="1" type="p2" depart="5" color="1,1,0">
      <route edges="gneE0 gneE1 gneE2 gneE3"/> 
    </vehicle>

</routes>

