<?xml version="1.0" encoding="UTF-8"?>

<!-- generated on 09/19/20 12:54:14 by Eclipse SUMO netedit Version 1.6.0
<configuration xmlns:xsi="http://www.w3.org/2001/XMLSchema-instance" xsi:noNamespaceSchemaLocation="http://sumo.dlr.de/xsd/netconvertConfiguration.xsd">

    <output>
        <output-file value="S:\SUMO%20stuff\3%20(CSE474)\M_network.net.xml"/>
    </output>

    <processing>
        <offset.disable-normalization value="true"/>
    </processing>

    <junctions>
        <no-turnarounds value="true"/>
    </junctions>

    <report>
        <aggregate-warnings value="5"/>
    </report>

</configuration>
-->

<net version="1.6" junctionCornerDetail="5" limitTurnSpeed="5.50" xmlns:xsi="http://www.w3.org/2001/XMLSchema-instance" xsi:noNamespaceSchemaLocation="http://sumo.dlr.de/xsd/net_file.xsd">

    <location netOffset="0.00,0.00" convBoundary="28.57,-73.42,371.49,169.73" origBoundary="10000000000.00,10000000000.00,-10000000000.00,-10000000000.00" projParameter="!"/>

    <edge id=":gneJ1_0" function="internal">
        <lane id=":gneJ1_0_0" index="0" speed="6.54" length="4.03" shape="80.26,171.32 79.23,171.22 78.29,170.93 77.44,170.44 76.68,169.74"/>
    </edge>
    <edge id=":gneJ1_1" function="internal">
        <lane id=":gneJ1_1_0" index="0" speed="4.15" length="1.34" shape="79.05,167.59 79.30,167.82 79.59,167.99 79.90,168.09 80.24,168.12"/>
    </edge>
    <edge id=":gneJ11_0" function="internal">
        <lane id=":gneJ11_0_0" index="0" speed="6.08" length="7.46" shape="92.96,140.27 90.95,140.00 89.47,139.15 88.54,137.73 88.14,135.74"/>
    </edge>
    <edge id=":gneJ11_1" function="internal">
        <lane id=":gneJ11_1_0" index="0" speed="3.91" length="2.49" shape="91.34,135.56 91.47,136.22 91.78,136.70 92.27,136.98 92.94,137.07"/>
    </edge>
    <edge id=":gneJ14_0" function="internal">
        <lane id=":gneJ14_0_0" index="0" speed="3.90" length="2.56" shape="92.31,-31.87 91.62,-31.78 91.12,-31.49 90.81,-31.00 90.69,-30.31"/>
    </edge>
    <edge id=":gneJ14_1" function="internal">
        <lane id=":gneJ14_1_0" index="0" speed="6.08" length="7.68" shape="87.49,-30.39 87.84,-32.46 88.77,-33.93 90.27,-34.80 92.36,-35.07"/>
    </edge>
    <edge id=":gneJ2_0" function="internal">
        <lane id=":gneJ2_0_0" index="0" speed="6.79" length="3.59" shape="28.21,116.29 27.53,115.49 27.15,114.84 27.00,114.12 26.97,113.06"/>
    </edge>
    <edge id=":gneJ2_1" function="internal">
        <lane id=":gneJ2_1_0" index="0" speed="4.28" length="1.20" shape="30.17,113.06 30.18,113.41 30.23,113.66 30.35,113.87 30.58,114.14"/>
    </edge>
    <edge id=":gneJ3_0" function="internal">
        <lane id=":gneJ3_0_0" index="0" speed="6.07" length="8.14" shape="26.97,66.00 27.29,63.77 28.25,62.22 29.86,61.37 32.10,61.21"/>
    </edge>
    <edge id=":gneJ3_1" function="internal">
        <lane id=":gneJ3_1_0" index="0" speed="3.90" length="2.71" shape="31.88,64.40 31.13,64.45 30.60,64.74 30.27,65.25 30.17,66.00"/>
    </edge>
    <edge id=":gneJ6_0" function="internal">
        <lane id=":gneJ6_0_0" index="0" speed="6.08" length="7.64" shape="31.57,37.80 29.54,37.34 28.12,36.35 27.33,34.81 27.16,32.73"/>
    </edge>
    <edge id=":gneJ6_1" function="internal">
        <lane id=":gneJ6_1_0" index="0" speed="3.91" length="2.55" shape="30.35,32.92 30.41,33.61 30.67,34.12 31.14,34.46 31.82,34.61"/>
    </edge>
    <edge id=":gneJ7_0" function="internal">
        <lane id=":gneJ7_0_0" index="0" speed="4.33" length="1.13" shape="33.48,-13.31 33.26,-13.06 33.14,-12.86 33.08,-12.64 33.05,-12.31"/>
    </edge>
    <edge id=":gneJ7_1" function="internal">
        <lane id=":gneJ7_1_0" index="0" speed="6.89" length="3.38" shape="29.86,-12.50 29.94,-13.49 30.12,-14.16 30.49,-14.76 31.15,-15.50"/>
    </edge>
    <edge id=":gneJ8_0" function="internal">
        <lane id=":gneJ8_0_0" index="0" speed="4.13" length="1.38" shape="89.09,-71.76 88.74,-71.74 88.41,-71.65 88.12,-71.49 87.85,-71.25"/>
    </edge>
    <edge id=":gneJ8_1" function="internal">
        <lane id=":gneJ8_1_0" index="0" speed="6.51" length="4.14" shape="85.52,-73.44 86.32,-74.14 87.20,-74.63 88.17,-74.90 89.23,-74.96"/>
    </edge>

    <edge id="-gneE0" from="gneJ1" to="gneJ0" priority="-1">
        <lane id="-gneE0_0" index="0" speed="13.89" length="280.89" shape="80.24,168.12 361.13,166.65"/>
    </edge>
    <edge id="-gneE1" from="gneJ2" to="gneJ1" priority="-1">
        <lane id="-gneE1_0" index="0" speed="13.89" length="72.16" shape="30.58,114.14 79.05,167.59"/>
    </edge>
    <edge id="-gneE10" from="gneJ14" to="gneJ13" priority="-1">
        <lane id="-gneE10_0" index="0" speed="13.89" length="55.98" shape="90.69,-30.31 89.29,25.65"/>
    </edge>
    <edge id="-gneE11" from="gneJ15" to="gneJ14" priority="-1">
        <lane id="-gneE11_0" index="0" speed="13.89" length="254.05" shape="346.34,-28.22 92.31,-31.87"/>
    </edge>
    <edge id="-gneE2" from="gneJ3" to="gneJ2" priority="-1">
        <lane id="-gneE2_0" index="0" speed="13.89" length="47.07" shape="30.17,66.00 30.17,113.06"/>
    </edge>
    <edge id="-gneE3" from="gneJ4" to="gneJ3" priority="-1">
        <lane id="-gneE3_0" index="0" speed="13.89" length="81.03" shape="112.71,70.07 31.88,64.40"/>
    </edge>
    <edge id="-gneE4" from="gneJ6" to="gneJ5" priority="-1">
        <lane id="-gneE4_0" index="0" speed="13.89" length="82.11" shape="31.82,34.61 113.68,41.01"/>
    </edge>
    <edge id="-gneE5" from="gneJ7" to="gneJ6" priority="-1">
        <lane id="-gneE5_0" index="0" speed="13.89" length="45.31" shape="33.05,-12.31 30.35,32.92"/>
    </edge>
    <edge id="-gneE6" from="gneJ8" to="gneJ7" priority="-1">
        <lane id="-gneE6_0" index="0" speed="13.89" length="79.46" shape="87.85,-71.25 33.48,-13.31"/>
    </edge>
    <edge id="-gneE7" from="gneJ9" to="gneJ8" priority="-1">
        <lane id="-gneE7_0" index="0" speed="13.89" length="282.60" shape="371.42,-59.26 89.09,-71.76"/>
    </edge>
    <edge id="-gneE8" from="gneJ11" to="gneJ10" priority="-1">
        <lane id="-gneE8_0" index="0" speed="13.89" length="257.85" shape="92.94,137.07 350.78,135.61"/>
    </edge>
    <edge id="-gneE9" from="gneJ12" to="gneJ11" priority="-1">
        <lane id="-gneE9_0" index="0" speed="13.89" length="49.51" shape="88.55,86.12 91.34,135.56"/>
    </edge>
    <edge id="gneE0" from="gneJ0" to="gneJ1" priority="-1">
        <lane id="gneE0_0" index="0" speed="13.89" length="280.89" shape="361.15,169.85 80.26,171.32"/>
    </edge>
    <edge id="gneE1" from="gneJ1" to="gneJ2" priority="-1">
        <lane id="gneE1_0" index="0" speed="13.89" length="72.16" shape="76.68,169.74 28.21,116.29"/>
    </edge>
    <edge id="gneE10" from="gneJ13" to="gneJ14" priority="-1">
        <lane id="gneE10_0" index="0" speed="13.89" length="55.98" shape="86.09,25.57 87.49,-30.39"/>
    </edge>
    <edge id="gneE11" from="gneJ14" to="gneJ15" priority="-1">
        <lane id="gneE11_0" index="0" speed="13.89" length="254.05" shape="92.36,-35.07 346.38,-31.42"/>
    </edge>
    <edge id="gneE2" from="gneJ2" to="gneJ3" priority="-1">
        <lane id="gneE2_0" index="0" speed="13.89" length="47.07" shape="26.97,113.06 26.97,66.00"/>
    </edge>
    <edge id="gneE3" from="gneJ3" to="gneJ4" priority="-1">
        <lane id="gneE3_0" index="0" speed="13.89" length="81.03" shape="32.10,61.21 112.93,66.88"/>
    </edge>
    <edge id="gneE4" from="gneJ5" to="gneJ6" priority="-1">
        <lane id="gneE4_0" index="0" speed="13.89" length="82.11" shape="113.43,44.20 31.57,37.80"/>
    </edge>
    <edge id="gneE5" from="gneJ6" to="gneJ7" priority="-1">
        <lane id="gneE5_0" index="0" speed="13.89" length="45.31" shape="27.16,32.73 29.86,-12.50"/>
    </edge>
    <edge id="gneE6" from="gneJ7" to="gneJ8" priority="-1">
        <lane id="gneE6_0" index="0" speed="13.89" length="79.46" shape="31.15,-15.50 85.52,-73.44"/>
    </edge>
    <edge id="gneE7" from="gneJ8" to="gneJ9" priority="-1">
        <lane id="gneE7_0" index="0" speed="13.89" length="282.60" shape="89.23,-74.96 371.56,-62.46"/>
    </edge>
    <edge id="gneE8" from="gneJ10" to="gneJ11" priority="-1">
        <lane id="gneE8_0" index="0" speed="13.89" length="257.85" shape="350.80,138.81 92.96,140.27"/>
    </edge>
    <edge id="gneE9" from="gneJ11" to="gneJ12" priority="-1">
        <lane id="gneE9_0" index="0" speed="13.89" length="49.51" shape="88.14,135.74 85.36,86.30"/>
    </edge>

    <junction id="gneJ0" type="dead_end" x="361.14" y="168.25" incLanes="-gneE0_0" intLanes="" shape="361.14,168.25 361.12,165.05 361.14,168.25"/>
    <junction id="gneJ1" type="priority" x="78.82" y="169.73" incLanes="gneE0_0 -gneE1_0" intLanes=":gneJ1_0_0 :gneJ1_1_0" shape="80.27,172.92 80.23,166.52 75.49,170.82 76.88,171.99 77.65,172.40 78.47,172.69 79.34,172.86">
        <request index="0" response="00" foes="00" cont="0"/>
        <request index="1" response="00" foes="00" cont="0"/>
    </junction>
    <junction id="gneJ10" type="dead_end" x="350.79" y="137.21" incLanes="-gneE8_0" intLanes="" shape="350.79,137.21 350.78,134.01 350.79,137.21"/>
    <junction id="gneJ11" type="priority" x="89.91" y="138.69" incLanes="gneE8_0 -gneE9_0" intLanes=":gneJ11_0_0 :gneJ11_1_0" shape="92.97,141.87 92.93,135.47 86.54,135.83 87.41,139.20 88.32,140.38 89.55,141.21 91.10,141.71">
        <request index="0" response="00" foes="00" cont="0"/>
        <request index="1" response="00" foes="00" cont="0"/>
    </junction>
    <junction id="gneJ12" type="dead_end" x="86.95" y="86.21" incLanes="gneE9_0" intLanes="" shape="86.95,86.21 83.76,86.39 86.95,86.21"/>
    <junction id="gneJ13" type="dead_end" x="87.69" y="25.61" incLanes="-gneE10_0" intLanes="" shape="87.69,25.61 90.89,25.69 87.69,25.61"/>
    <junction id="gneJ14" type="priority" x="89.17" y="-33.51" incLanes="-gneE11_0 gneE10_0" intLanes=":gneJ14_0_0 :gneJ14_1_0" shape="92.29,-30.27 92.38,-36.67 88.85,-36.01 87.59,-35.15 86.68,-33.93 86.12,-32.36 85.89,-30.43">
        <request index="0" response="00" foes="00" cont="0"/>
        <request index="1" response="00" foes="00" cont="0"/>
    </junction>
    <junction id="gneJ15" type="dead_end" x="346.36" y="-29.82" incLanes="gneE11_0" intLanes="" shape="346.36,-29.82 346.41,-33.02 346.36,-29.82"/>
    <junction id="gneJ2" type="priority" x="28.57" y="114.30" incLanes="gneE1_0 -gneE2_0" intLanes=":gneJ2_0_0 :gneJ2_1_0" shape="27.03,117.36 31.77,113.06 25.37,113.06 25.45,114.82 25.62,115.44 25.91,116.00 26.37,116.61">
        <request index="0" response="00" foes="00" cont="0"/>
        <request index="1" response="00" foes="00" cont="0"/>
    </junction>
    <junction id="gneJ3" type="priority" x="28.57" y="62.56" incLanes="gneE2_0 -gneE3_0" intLanes=":gneJ3_0_0 :gneJ3_1_0" shape="25.37,66.00 31.77,66.00 32.22,59.61 30.12,59.66 28.41,60.11 27.08,60.97 26.13,62.24 25.56,63.91">
        <request index="0" response="00" foes="00" cont="0"/>
        <request index="1" response="00" foes="00" cont="0"/>
    </junction>
    <junction id="gneJ4" type="dead_end" x="112.82" y="68.48" incLanes="gneE3_0" intLanes="" shape="112.82,68.48 113.04,65.28 112.82,68.48"/>
    <junction id="gneJ5" type="dead_end" x="113.56" y="42.61" incLanes="-gneE4_0" intLanes="" shape="113.56,42.61 113.81,39.42 113.56,42.61"/>
    <junction id="gneJ6" type="priority" x="28.57" y="35.96" incLanes="gneE4_0 -gneE5_0" intLanes=":gneJ6_0_0 :gneJ6_1_0" shape="31.45,39.39 31.95,33.01 25.56,32.63 26.05,36.17 26.85,37.46 28.01,38.42 29.55,39.07">
        <request index="0" response="00" foes="00" cont="0"/>
        <request index="1" response="00" foes="00" cont="0"/>
    </junction>
    <junction id="gneJ7" type="priority" x="31.52" y="-13.56" incLanes="-gneE6_0 gneE5_0" intLanes=":gneJ7_0_0 :gneJ7_1_0" shape="34.65,-12.21 29.98,-16.59 28.90,-15.33 28.61,-14.81 28.43,-14.24 28.33,-13.53 28.26,-12.59">
        <request index="0" response="00" foes="00" cont="0"/>
        <request index="1" response="00" foes="00" cont="0"/>
    </junction>
    <junction id="gneJ8" type="priority" x="87.69" y="-73.42" incLanes="-gneE7_0 gneE6_0" intLanes=":gneJ8_0_0 :gneJ8_1_0" shape="89.02,-70.16 89.30,-76.55 87.45,-76.39 86.60,-76.11 85.80,-75.72 85.05,-75.19 84.35,-74.54">
        <request index="0" response="00" foes="00" cont="0"/>
        <request index="1" response="00" foes="00" cont="0"/>
    </junction>
    <junction id="gneJ9" type="dead_end" x="371.49" y="-60.86" incLanes="gneE7_0" intLanes="" shape="371.49,-60.86 371.63,-64.05 371.49,-60.86"/>

    <connection from="-gneE1" to="-gneE0" fromLane="0" toLane="0" via=":gneJ1_1_0" dir="r" state="M"/>
    <connection from="-gneE11" to="-gneE10" fromLane="0" toLane="0" via=":gneJ14_0_0" dir="r" state="M"/>
    <connection from="-gneE2" to="-gneE1" fromLane="0" toLane="0" via=":gneJ2_1_0" dir="s" state="M"/>
    <connection from="-gneE3" to="-gneE2" fromLane="0" toLane="0" via=":gneJ3_1_0" dir="r" state="M"/>
    <connection from="-gneE5" to="-gneE4" fromLane="0" toLane="0" via=":gneJ6_1_0" dir="r" state="M"/>
    <connection from="-gneE6" to="-gneE5" fromLane="0" toLane="0" via=":gneJ7_0_0" dir="s" state="M"/>
    <connection from="-gneE7" to="-gneE6" fromLane="0" toLane="0" via=":gneJ8_0_0" dir="r" state="M"/>
    <connection from="-gneE9" to="-gneE8" fromLane="0" toLane="0" via=":gneJ11_1_0" dir="r" state="M"/>
    <connection from="gneE0" to="gneE1" fromLane="0" toLane="0" via=":gneJ1_0_0" dir="l" state="M"/>
    <connection from="gneE1" to="gneE2" fromLane="0" toLane="0" via=":gneJ2_0_0" dir="s" state="M"/>
    <connection from="gneE10" to="gneE11" fromLane="0" toLane="0" via=":gneJ14_1_0" dir="l" state="M"/>
    <connection from="gneE2" to="gneE3" fromLane="0" toLane="0" via=":gneJ3_0_0" dir="l" state="M"/>
    <connection from="gneE4" to="gneE5" fromLane="0" toLane="0" via=":gneJ6_0_0" dir="l" state="M"/>
    <connection from="gneE5" to="gneE6" fromLane="0" toLane="0" via=":gneJ7_1_0" dir="s" state="M"/>
    <connection from="gneE6" to="gneE7" fromLane="0" toLane="0" via=":gneJ8_1_0" dir="l" state="M"/>
    <connection from="gneE8" to="gneE9" fromLane="0" toLane="0" via=":gneJ11_0_0" dir="l" state="M"/>

    <connection from=":gneJ1_0" to="gneE1" fromLane="0" toLane="0" dir="l" state="M"/>
    <connection from=":gneJ1_1" to="-gneE0" fromLane="0" toLane="0" dir="r" state="M"/>
    <connection from=":gneJ11_0" to="gneE9" fromLane="0" toLane="0" dir="l" state="M"/>
    <connection from=":gneJ11_1" to="-gneE8" fromLane="0" toLane="0" dir="r" state="M"/>
    <connection from=":gneJ14_0" to="-gneE10" fromLane="0" toLane="0" dir="r" state="M"/>
    <connection from=":gneJ14_1" to="gneE11" fromLane="0" toLane="0" dir="l" state="M"/>
    <connection from=":gneJ2_0" to="gneE2" fromLane="0" toLane="0" dir="s" state="M"/>
    <connection from=":gneJ2_1" to="-gneE1" fromLane="0" toLane="0" dir="s" state="M"/>
    <connection from=":gneJ3_0" to="gneE3" fromLane="0" toLane="0" dir="l" state="M"/>
    <connection from=":gneJ3_1" to="-gneE2" fromLane="0" toLane="0" dir="r" state="M"/>
    <connection from=":gneJ6_0" to="gneE5" fromLane="0" toLane="0" dir="l" state="M"/>
    <connection from=":gneJ6_1" to="-gneE4" fromLane="0" toLane="0" dir="r" state="M"/>
    <connection from=":gneJ7_0" to="-gneE5" fromLane="0" toLane="0" dir="s" state="M"/>
    <connection from=":gneJ7_1" to="gneE6" fromLane="0" toLane="0" dir="s" state="M"/>
    <connection from=":gneJ8_0" to="-gneE6" fromLane="0" toLane="0" dir="r" state="M"/>
    <connection from=":gneJ8_1" to="gneE7" fromLane="0" toLane="0" dir="l" state="M"/>

</net>
